!!! File input Ansys generato da hypermesh V7.0, commentato da Enrico, relativo ad una mesh di due elementi tetra10, con materiali, già usata come test-data in LhpB.
!!! I commenti con tre !!! sono miei, quelli con due !! arrivano direttamente da hypermesh
!! ANSYS Input Deck Generated by HyperMesh Version  : 7.0
!! Generated using HyperMesh-Ansys Template Version : 7.0
!!! le 5 righe seguenti si possono ignorare nell'importer, da riconsiderare per l'exporter
/TITLE,                                                                        
/COM,HyperMesh generated /PREP7 cards
/PREP7
DOF,  DELETE,        ,        ,        ,        ,        ,        ,        ,        ,        
/NOPR                                                                          


!!! SEZIONE NODI, simil-matrice a 5 colonne separate da virgola 
!!!prima colonna: chiave identificativa (è sempre il char N)
!!!seconda colonna: numero del nodo (sempre un intero)
!!!terza, quarta, quinta colonna: coordinate x,y,z del nodo (real)
!!!nota: la dichiarazione delle coord nodali non varia tra modelli tetra, hexa, lineari, quadratici. Eventuale mancanza quinta colonna in modelli 2D, quarta e quinta in modelli 1D (per ora non supportati)
CSYS,0 		!!!nota: questo campo indica il sistema di riferimento da utilizzare. il sistema 0 è cartesiano con origine 0,0,0. Ci poniamo il problema di altri sist di rif possibili o per ora no?

N,1,             0.0,             0.0,             0.0
N,2,             1.0,             0.0,             0.0
N,3,             0.0,             1.0,             0.0
N,4,             0.0,             0.0,             1.0
N,5,             1.0,             1.0,             1.0
N,6,             0.5,             0.0,             0.0
N,7,             0.0,             0.5,             0.0
N,8,             0.0,             0.0,             0.5
N,9,             0.5,             0.5,             0.0
N,10,             0.5,             0.0,             0.5
N,11,             1.0,             0.5,             0.5
N,12,             0.0,             0.5,             0.5
N,13,             0.5,             1.0,             0.5
N,14,             0.5,             0.5,             1.0

!!!SEZIONE DEFINIZIONE MATERIALI
!!HMNAME MAT 

!!!Tre righe, la prima "MPTEMP" da ignorare (nell'import, NB potrebbe essere già commentata in alcuni file) e da non inserire (nell'export), la seconda e la terza da considerare sia per l'import che per l'export
!!!le righe da considerare hanno struttura a cinque colonne separate da virgola
!!!nota: tutte le righe che iniziano con MP sono relative alla dichiarazione di materiali, in particolare quelle con MPDATA definiscono le proprietà
!!!prima colonna: identificazione di che cosa si tratta (è una string, NB tutte le righe che iniziano con MP sono relative alla dichiarazione di materiali, in particolare quelle con MPDATA definiscono le proprietà)
!!!seconda colonna: nome della proprietà (string)
!!!terza colonna: numero del materiale NB questo è importante perchè è questo il parametro richiamato nella dichiarazione degli elementi, che fa associare un materiale ad un gruppo di elementi
!!!quarta colonna: 
!!!quinta colonna: 
!!!NB in questi file ci sono tre righe di dichiarazione, se ne potrebbero trovare di più, ma sempre con la stessa struttura

!!         2 "MAT2"
MPTEMP,1,             0.0
MPDATA,EX  ,2,1,          1000.0
MPDATA,NUXY,2,1,             0.3
!!HMNAME MAT 
!!         3 "MAT3"
MPTEMP,1,             0.0
MPDATA,EX  ,3,1,        200000.0
MPDATA,NUXY,3,1,            0.33

!!!SEZIONE DICHIARAZIONE ELEMENT TYPE
!!!dichiara quanti "tipi" di elementi sono presenti NB ci possono essere diversi ET uguali, come i due qua sotto...)
!!!tre colonne, la prima (string) dice che sto creando un "element type", la seconda (intero) assegna un numero, la terza (intero) dice che tipo di elemento del DB ansys è (ad es, 187 è una particolare formulazione di tetra a 10 nodi) 
!!!NB io nell'import ignorerei queste righe, sono da considerare nell'export, ma sto pensando a un modo di evitare dichirazioni ridondanti come quella qua sotto
ET,2,187
ET,3,187


!!!SEZIONE DICHIARAZIONE ELEMENTI
!!!la dichiarazione di elementi avviene a gruppi (in questo caso sono 2). Ogni gruppo si può distinguere per "element type", "real constant set", "material"
!!HMNAME COMP 
!!   2-2-3 "TYPE2-REAL3-MAT2"
!!HMCOLOR COMP 
!!   2-2-3 1

!!!le righe seguenti definiscono il gruppo di elementi che hanno (type=2, material=2 real constant set=3) 
!!!NB a noi per ora (e per un po'...) non interesserà la distinzione per "real constant set", solo quelle per element type e per material. Al momento consideriamo solo quelle per material, visto che le mesh hanno tipo di elemento uiniforme (tutti tetra 10, oppure tutti hexa 8 ecc.) 
!!!riga TYPE: ci interessa solo l'informazione "MAT,2", che dice che tutti gli elementi del gruppo hanno material card=2 (quella definita prima) 
!!!riga ESYS: definisce il sistema di riferimento dell'elemento. analogamente a quanto detto per i nodi, ci poniamo il problema di altri sist di rif possibili o per ora no?
!!!riga EN: definisce il numero elemento e la connettività. colonna1(string EN):dichiara che stiamo creando un elemento colonna2(intero): numero dell'elemento colonna3-->10: connettività, ovvero lista dei nodi che compongono l'elemento (sono ordinati, in maniera nota per ciascun tipo di elemento in ANSYS...non serve vero?)
!!!riga EMORE: continuazione della definizione della connettività, poichè il formato inp di ANSYS va a capo dopo 10 campi-colonna. In questo caso (elementi tetra 10) rimangono due nodi da listare
!!!NB ci saranno tante righe EN (ed eventualmente EMORE) quanti sono gli elementi contenuti nel gruppo (solo uno in questo caso) 
!!!NB a seconda del numero di nodi per ogni elemento per ogni riga EN ci potranno essere 0 (tetra 4, hexa8),1 (tetra 10),oppure 2 (hexa20) righe EMORE  
TYPE, 2  $ MAT, 2  $ REAL, 3
ESYS, 0
EN,       2,       3,       1,       2,       4,       7,       6,       9,      12
EMORE,       8,      10
!!!!le 5 righe seguenti sono comandi di selezione e raggruppamento di ANSYS, vanno ignorati nell'import, sono da riconsiderare per l'export 
ESEL, S, TYPE,,2
ESEL, R, MAT,,2
ESEL, R, REAL,,3
CM, TYPE2-REAL3-MAT2, ELEM
ESEL, ALL

!!!dichiarazione secondo gruppo elementi, analogo al primo...

!!HMNAME COMP 
!!   3-3-3 "TYPE3-REAL3-MAT3"
!!HMCOLOR COMP 
!!   3-3-3 1
TYPE, 3  $ MAT, 3  $ REAL, 3
ESYS, 0
EN,       1,       5,       2,       4,       3,      11,      10,      14,      13
EMORE,       9,      12
ESEL, S, TYPE,,3
ESEL, R, MAT,,3
ESEL, R, REAL,,3
CM, TYPE3-REAL3-MAT3, ELEM
ESEL, ALL


!!!Tutta la sezione di seguito è da ignorare, di sicuro nell'import, probabilmente anche per l'export

!! Loadstep Data 

!! Loadstep Data (all loads and boundary conditions).
LSCLEAR, ALL
LSWRITE,1

CMBLOCK,TET,ELEMENT,2
(8I10)
         1        -2
TIME,     0.0
NEQIT,       0
ACEL,     0.0,     0.0,     0.0
CGLOC,     0.0,     0.0,     0.0
CGOMEGA,     0.0,     0.0,     0.0
DCGOMG,     0.0,     0.0,     0.0
DOMEGA,     0.0,     0.0,     0.0
IRLF,       0
OMEGA,     0.0,     0.0,     0.0
KUSE,       0
ALPHAD,     0.0
BETAD,     0.0
DMPRAT,     0.0
CRPLIM,     0.1,       0
CRPLIM,     0.0,       1
NCNV,       1,     0.0,       0,     0.0,     0.0
ERESX,    DEFA
TREF,     0.0
BFUNIF,    TEMP,     0.0

!!!dichiarazione di termine input

FINISH
